<?xml version="1.0" encoding="UTF-8"?>

<netconvertConfiguration>
    <input>
        <node-files value="cross.nod.xml"/>
        <edge-files value="cross.edg.xml"/>
        <connection-files value="cross.con.xml"/>
        <tllogic-files value="traffic.tll.xml"/>
    </input>
    <output>
        <output-file value="network.net.xml"/>
    </output>
    <report>
        <verbose value="true"/>
    </report>
</netconvertConfiguration>
