<?xml version="1.0" encoding="UTF-8"?>

<configuration>
    <input>
        <net-file value="network.net.xml"/>
        <route-files value="routes.rou.xml"/>
    </input>
    <time>
        <step-length value="1"/>
        <begin value="0"/>
        <end value="10000"/>
    </time>
</configuration>
