<routes>
    <vType id="autonomous" accel="2.6" decel="4.5" sigma="0.5" length="5"/>
    <vType id="typeWE" accel="2.6" decel="4.5" sigma="0.5" length="5"/>
    <vType id="typeEW" accel="2.6" decel="4.5" sigma="0.5" length="5"/>

    <route id="right" edges="51o 1i 2o 52i" />
    <route id="left" edges="52o 2i 1o 51i" />
    <route id="circle" edges="54o 4i 3o 53i 53o 3i 4o 54i" />
    
    <vehicle id="av" type="autonomous" route="circle" depart="0" />
    <vehicle id="WE" type="typeWE" route="right" depart="2" />
    <vehicle id="EW" type="typeWE" route="left" depart="4" />
</routes>
